psat/tests/d_039ieee_edit.m
% File generated by PSAT from IEEE/CDF data file.
% ------------------------------------------------------------------------------
% Author:   Federico Milano
% E-mail:   fmilano@thunderbox.uwaterloo.ca
% Web-site: http://thunderbox.uwaterloo.ca/~fmilano
% ------------------------------------------------------------------------------
% Generic IEEE/CDF Data Format File 039ieee.DAT
Bus.con = [ ...
%    1   100.00  1.04700 -0.16703  1 1;
   1   100.00  1.00000 -0.16703  1 1;
   2   100.00  1.04900 -0.12237  1 1;
%    3   100.00  1.00000 0.00000  1 1;
   3   100.00  1.03000 -0.17205  1 1;
   4   100.00  1.00300 -0.18588  1 1;
   5   100.00  1.00500 -0.16525  1 1;
   6   100.00  1.00700 -0.15300  1 1;
   7   100.00  0.99600 -0.19146  1 1;
   8   100.00  0.99500 -0.20019  1 1;
   9   100.00  1.02800 -0.19705  1 1;
  10   100.00  1.01700 -0.11137  1 1;
  11   100.00  1.01200 -0.12558  1 1;
  12   100.00  1.00000 -0.12584  2 1;
  13   100.00  1.01400 -0.12383  3 1;
  14   100.00  1.01100 -0.15296  4 1;
  15   100.00  1.01500 -0.16022  5 1;
  16   100.00  1.03200 -0.13572  6 1;
  17   100.00  1.03400 -0.15314  7 1;
  18   100.00  1.03100 -0.16781  8 1;
  19   100.00  1.05000 -0.05501  9 1;
  20   100.00  0.99100 -0.07964  1 1;
  21   100.00  1.03200 -0.09374  1 1;
  22   100.00  1.05000 -0.01611  2 1;
  23   100.00  1.04500 -0.01958  3 1;
  24   100.00  1.03700 -0.13362  4 1;
  25   100.00  1.05700 -0.09859  5 1;
  26   100.00  1.05200 -0.12051  6 1;
  27   100.00  1.03700 -0.15563  7 1;
  28   100.00  1.05000 -0.05924  8 1;
  29   100.00  1.05000 -0.01108  9 1;
  30   100.00  1.04700 -0.08013  1 1;
  31   100.00  0.98200  0.00000  1 1;
  32   100.00  0.98300  0.02820  2 1;
  33   100.00  0.99700  0.03603  3 1;
  34   100.00  1.01200  0.01093  4 1;
  35   100.00  1.04900  0.07046  5 1;
  36   100.00  1.06300  0.11745  6 1;
  37   100.00  1.02700  0.01982  7 1;
  38   100.00  1.02600  0.11219  8 1;
  39   100.00  1.03000 -0.19373  9 1];

SW.con = [ ...
%   3   100.0   100.00  1.0000   0.00000 9999.00000 -999.90000 1.1 0.9   0           1;
  31 100.0   100.00  0.98200  0.00000 9999.00000 -999.90000 1.1 0.9  5.72835 1];

PV.con = [ ...
  30 100.0   100.00  2.50000  1.04700 9999.00000 -999.90000 1.1 0.9 1;
  32 100.0   100.00  6.50000  0.98300 9999.00000 -999.90000 1.1 0.9 1;
  33 100.0   100.00  6.32000  0.99700 9999.00000 -999.90000 1.1 0.9 1;
  34 100.0   100.00  5.08000  1.01200 9999.00000 -999.90000 1.1 0.9 1;
  35 100.0   100.00  6.50000  1.04900 9999.00000 -999.90000 1.1 0.9 1;
  36 100.0   100.00  5.60000  1.06300 9999.00000 -999.90000 1.1 0.9 1;
  37 100.0   100.00  5.40000  1.02700 9999.00000 -999.90000 1.1 0.9 1;
  38 100.0   100.00  8.30000  1.02600 9999.00000 -999.90000 1.1 0.9 1;
  39 100.0   100.00 10.00000  1.03000 9999.00000 -999.90000 1.1 0.9 1];


PQ.con = [ ...
   3 100.0   100.00  3.22000  0.02400 1.5 0.01 1;
   4 100.0   100.00  5.00000  1.84000 1.5 0.01 1;
   7 100.0   100.00  2.33800  0.84000 1.5 0.01 1;
   8 100.0   100.00  5.22000  1.76000 1.5 0.01 1;
  12 100.0   100.00  0.08500  0.88000 1.5 0.01 1;
  15 100.0   100.00  3.20000  1.53000 1.5 0.01 1;
  16 100.0   100.00  3.29000  0.32300 1.5 0.01 1;
  18 100.0   100.00  1.58000  0.30000 1.5 0.01 1;
  20 100.0   100.00  6.80000  1.03000 1.5 0.01 1;
  21 100.0   100.00  2.74000  1.15000 1.5 0.01 1;
  23 100.0   100.00  2.47500  0.84600 1.5 0.01 1;
  24 100.0   100.00  3.08600 -0.92200 1.5 0.01 1;
  25 100.0   100.00  2.24000  0.47200 1.5 0.01 1;
  26 100.0   100.00  1.39000  0.17000 1.5 0.01 1;
  27 100.0   100.00  2.81000  0.75500 1.5 0.01 1;
  28 100.0   100.00  2.06000  0.27600 1.5 0.01 1;
  29 100.0   100.00  2.83500  0.26900 1.5 0.01 1;
  31 100.0   100.00  0.09200  0.04600 1.5 0.01 1;
  39 100.0   100.00 11.04000  2.50000 1.5 0.01 1];


Line.con = [ ...
   2    1   100.00   100.00 60 0   0.0000  0.00350  0.04110  0.69870  1.00000  0.00000 0    0.000    0.000;
  39    1   100.00   100.00 60 0   0.0000  0.00100  0.02500  0.75000  1.00000  0.00000 0    0.000    0.000;
   3    2   100.00   100.00 60 0   0.0000  0.00130  0.01510  0.25720  1.00000  0.00000 0    0.000    0.000;
  25    2   100.00   100.00 60 0   0.0000  0.00700  0.00860  0.14600  1.00000  0.00000 0    0.000    0.000;
   4    3   100.00   100.00 60 0   0.0000  0.00130  0.02130  0.22140  1.00000  0.00000 0    0.000    0.000;
  18    3   100.00   100.00 60 0   0.0000  0.00110  0.01330  0.21380  1.00000  0.00000 0    0.000    0.000;
   5    4   100.00   100.00 60 0   0.0000  0.00080  0.01280  0.13420  1.00000  0.00000 0    0.000    0.000;
  14    4   100.00   100.00 60 0   0.0000  0.00080  0.01290  0.13820  1.00000  0.00000 0    0.000    0.000;
   6    5   100.00   100.00 60 0   0.0000  0.00020  0.00260  0.04340  1.00000  0.00000 0    0.000    0.000;
   8    5   100.00   100.00 60 0   0.0000  0.00080  0.01120  0.14760  1.00000  0.00000 0    0.000    0.000;
   7    6   100.00   100.00 60 0   0.0000  0.00060  0.00920  0.11300  1.00000  0.00000 0    0.000    0.000;
  11    6   100.00   100.00 60 0   0.0000  0.00070  0.00820  0.13890  1.00000  0.00000 0    0.000    0.000;
   8    7   100.00   100.00 60 0   0.0000  0.00040  0.00460  0.07800  1.00000  0.00000 0    0.000    0.000;
   9    8   100.00   100.00 60 0   0.0000  0.00230  0.03630  0.38040  1.00000  0.00000 0    0.000    0.000;
  39    9   100.00   100.00 60 0   0.0000  0.00100  0.02500  1.20000  1.00000  0.00000 0    0.000    0.000;
  11   10   100.00   100.00 60 0   0.0000  0.00040  0.00430  0.07290  1.00000  0.00000 0    0.000    0.000;
  13   10   100.00   100.00 60 0   0.0000  0.00040  0.00430  0.07290  1.00000  0.00000 0    0.000    0.000;
  14   13   100.00   100.00 60 0   0.0000  0.00090  0.01010  0.17230  1.00000  0.00000 0    0.000    0.000;
  15   14   100.00   100.00 60 0   0.0000  0.00180  0.02170  0.36600  1.00000  0.00000 0    0.000    0.000;
  16   15   100.00   100.00 60 0   0.0000  0.00090  0.00940  0.17100  1.00000  0.00000 0    0.000    0.000;
  17   16   100.00   100.00 60 0   0.0000  0.00070  0.00890  0.13420  1.00000  0.00000 0    0.000    0.000;
  19   16   100.00   100.00 60 0   0.0000  0.00160  0.01950  0.30400  1.00000  0.00000 0    0.000    0.000;
  21   16   100.00   100.00 60 0   0.0000  0.00080  0.01350  0.25480  1.00000  0.00000 0    0.000    0.000;
  24   16   100.00   100.00 60 0   0.0000  0.00030  0.00590  0.06800  1.00000  0.00000 0    0.000    0.000;
  18   17   100.00   100.00 60 0   0.0000  0.00070  0.00820  0.13190  1.00000  0.00000 0    0.000    0.000;
  27   17   100.00   100.00 60 0   0.0000  0.00130  0.01730  0.32160  1.00000  0.00000 0    0.000    0.000;
  22   21   100.00   100.00 60 0   0.0000  0.00080  0.01400  0.25650  1.00000  0.00000 0    0.000    0.000;
  23   22   100.00   100.00 60 0   0.0000  0.00060  0.00960  0.18460  1.00000  0.00000 0    0.000    0.000;
  24   23   100.00   100.00 60 0   0.0000  0.00220  0.03500  0.36100  1.00000  0.00000 0    0.000    0.000;
  26   25   100.00   100.00 60 0   0.0000  0.00320  0.03230  0.51300  1.00000  0.00000 0    0.000    0.000;
  27   26   100.00   100.00 60 0   0.0000  0.00140  0.01470  0.23960  1.00000  0.00000 0    0.000    0.000;
  28   26   100.00   100.00 60 0   0.0000  0.00430  0.04740  0.78020  1.00000  0.00000 0    0.000    0.000;
  29   26   100.00   100.00 60 0   0.0000  0.00570  0.06250  1.02900  1.00000  0.00000 0    0.000    0.000;
  29   28   100.00   100.00 60 0   0.0000  0.00140  0.01510  0.24900  1.00000  0.00000 0    0.000    0.000;
  12   11   100.00   100.00 60 0   0.0000  0.00160  0.04350  0.00000  1.00600  0.00000 0    0.000    0.000;
  12   13   100.00   100.00 60 0   0.0000  0.00160  0.04350  0.00000  1.00600  0.00000 0    0.000    0.000;
   6   31   100.00   100.00 60 0   0.0000  0.00000  0.02500  0.00000  1.07000  0.00000 0    0.000    0.000;
  10   32   100.00   100.00 60 0   0.0000  0.00000  0.02000  0.00000  1.07000  0.00000 0    0.000    0.000;
  19   33   100.00   100.00 60 0   0.0000  0.00070  0.01420  0.00000  1.07000  0.00000 0    0.000    0.000;
  20   34   100.00   100.00 60 0   0.0000  0.00090  0.01800  0.00000  1.00900  0.00000 0    0.000    0.000;
  22   35   100.00   100.00 60 0   0.0000  0.00000  0.01430  0.00000  1.02500  0.00000 0    0.000    0.000;
  23   36   100.00   100.00 60 0   0.0000  0.00050  0.02720  0.00000  1.00000  0.00000 0    0.000    0.000;
  25   37   100.00   100.00 60 0   0.0000  0.00060  0.02320  0.00000  1.02500  0.00000 0    0.000    0.000;
   2   30   100.00   100.00 60 0   0.0000  0.00000  0.01810  0.00000  1.02500  0.00000 0    0.000    0.000;
  29   38   100.00   100.00 60 0   0.0000  0.00080  0.01560  0.00000  1.02500  0.00000 0    0.000    0.000;
  19   20   100.00   100.00 60 0   0.0000  0.00070  0.01380  0.00000  1.06000  0.00000 0    0.000    0.000];

Varname.bus = { ...
  'BUS-1   100'; 'BUS-2   100'; 'BUS-3   100'; 'BUS-4   100'; 'BUS-5   100';
  'BUS-6   100'; 'BUS-7   100'; 'BUS-8   100'; 'BUS-9   100'; 'BUS-10  100';
  'BUS-11  100'; 'BUS-12  100'; 'BUS-13  100'; 'BUS-14  100'; 'BUS-15  100';
  'BUS-16  100'; 'BUS-17  100'; 'BUS-18  100'; 'BUS-19  100'; 'BUS-20  100';
  'BUS-21  100'; 'BUS-22  100'; 'BUS-23  100'; 'BUS-24  100'; 'BUS-25  100';
  'BUS-26  100'; 'BUS-27  100'; 'BUS-28  100'; 'BUS-29  100'; 'BUS-30  100';
  'BUS-31  100'; 'BUS-32  100'; 'BUS-33  100'; 'BUS-34  100'; 'BUS-35  100';
  'BUS-36  100'; 'BUS-37  100'; 'BUS-38  100'; 'BUS-39  100'};

% Syn.con = [ ... 
% %Bus  Sn       Vn      fn      Model  xl        ra   xd      xd'       xd''    Td0'   Td0'' xq     xq'       xq''  Tq0'       Tq0''  M         D       Kw      Kp      Yp      Yq    TAA                                                                               
%   31 1200    100      60       4      0.0       0  2.266  0.27        0.168    8.375  0.224  2.266  2.266   0.168   9999       1.66  4.249       0       0       0       1       1   0.002;
%   30 1200    100      60       4      0.0       0  0.282  0.282       0.282     10     0.1  0.282  0.282    0.282   9999       0.2    7.49      0       0       0       1       1   0.002; 
%   32 1200    100      60       4      0.0       0  2.266  0.27        0.168    8.375  0.224  2.266  2.266   0.168   9999       1.66  4.249       0       0       0       1       1   0.002;  
%   33 1200    100      60       4      0.0       0  1.217  0.349       0.25     7.24    0.1  0.6    0.6      0.25    9999       0.2   9.014       0       0       0       1       1   0.002;
%   34 1200    100      60       4      0.0       0  1.81   0.284       0.183    6.2     0.192 1.81  1.81     0.183   9999       1.89  6.672       0       0       0       1       1   0.002;
%   35 1200    100      60       4      0.0       0  1.951  0.306       0.198    6.2     0.1  1.951  1.951    0.198   9999       0.5   6.149       0       0       0       1       1   0.002;
%   36 1200    100      60       4      0.0       0  1.633  0.197       0.148    6.92    0.1  1.633  1.633    0.148   9999       0.2   2.62        0       0       0       1       1   0.002;
%   37 1200    100      60       4      0.0       0  0.904  0.358       0.252    5.53    0.05  0.64   0.64    0.252   9999       0.05  7.692       0       0       0       1       1   0.002;
%   38 1200    100      60       4      0.0       0  0.75   0.306       0.196    5.95    0.05  0.611  0.611   0.196   9999       0.05  8.393       0       0       0       1       1   0.002
%   39 1200    100      60       4      0.0       0  0.282  0.282       0.282     10     0.1  0.282  0.282    0.282   9999       0.2    7.49      0       0       0       1       1   0.002
%   ];
% 
% con = [];
% 
% for i = 1 : length(Syn.con(:,1))
%     cfg = [Syn.con(i,1) 1200    100      60       4      0.0       0  0.282  0.282       0.282     10     0.1  0.282  0.282    0.282   9999       0.2    7.49      0       0       0       1       1   0.002];
% %     cfg = [Syn.con(i,1) 2000  100  60  6  0.15  0.003  1.81  0.3  0.23  8  0.03  1.76  0.65  0.25  1  0.07  7  0  0  0  1  1  0  0.05  0.1  0  1];
%     con = [con; cfg];
% end
% Syn.con = con;
% 
% conNew = [
%  0.13        0        1     0.31     0.31     10.2        0     0.69     0.69     0.69      1.0        0      8.4        0        0        0        1        1        0;
%  0.35        0     2.95      0.7      0.7     6.56        0     2.82      1.7      1.7      1.5        0     6.06        0        0        0        1        1        0;
%   0.3        0      2.5     0.53     0.53      5.7        0     2.37     0.88     0.88      1.5        0     7.16        0        0        0        1        1        0;
% 0.295        0     2.62     0.44     0.44     5.69        0     2.58     1.66     1.66      1.5        0     5.72        0        0        0        1        1        0;
%  0.54        0      6.7     1.32     1.32      5.4        0      6.2     1.66     1.66     0.44        0      5.2        0        0        0        1        1        0;
% 0.224        0     2.54      0.5      0.5      7.3        0     2.41     0.81     0.81      0.4        0     6.96        0        0        0        1        1        0;
% 0.322        0      2.9     0.49     0.49     5.66        0      2.8     1.86     1.86      1.5        0     5.28        0        0        0        1        1        0;
%  0.28        0      2.9     0.57     0.57      6.7        0      2.8     0.91     0.91     0.41        0     4.86        0        0        0        1        1        0;
% 0.298        0    2.106     0.57     0.57     4.79        0     2.05     0.59     0.59     1.96        0      6.9        0        0        0        1        1        0;
%  0.03        0      0.2     0.06     0.06        7        0     0.19     0.08     0.08      0.7        0      100       50        0        0        1        1        0];
% 
% Syn.con(:, 6:end) = conNew;
% 
% 
% 
% Tg.con = [ ... 
%   1  1  1  0.02  1.2  0.01  0.2  0.45  0  12  50  1;
%   2  1  1  0.02  1.2  0.01  0.2  0.45  0  12  50  1;
%   3  1  1  0.02  1.2  0.01  0.2  0.45  0  12  50  1;
%   4  1  1  0.02  1.2  0.01  0.2  0.45  0  12  50  1;
%   5  1  1  0.02  1.2  0.01  0.2  0.45  0  12  50  1;
%   6  1  1  0.02  1.2  0.01  0.2  0.45  0  12  50  1;
%   7  1  1  0.02  1.2  0.01  0.2  0.45  0  12  50  1;
%   8  1  1  0.02  1.2  0.01  0.2  0.45  0  12  50  1;
%   9  1  1  0.02  1.2  0.01  0.2  0.45  0  12  50  1;
%   10  1  1  0.02  1.2  0.01  0.2  0.45  0  12  50  1;  
%  ];
% 
% con = [];
% 
% for i = 1 : length(Tg.con(:,1))
%     cfg = [Tg.con(i,1) 2  1  0.01  1.2  0.1  0.3  0.1  0  0  0  1];
% %     cfg = [Syn.con(i,1) 2000  100  60  6  0.15  0.003  1.81  0.3  0.23  8  0.03  1.76  0.65  0.25  1  0.07  7  0  0  0  1  1  0  0.05  0.1  0  1];
%     con = [con; cfg];
% end
% Tg.con = con;



%% from 3 machine 9 bus system
% Syn.con = [ ... 
%   1  2220  400  60  6  0.15  0.003  1.81  0.3  0.23  8  0.03  1.76  0.65  0.25  1  0.07  7  0  0  0  1  1  0  0.05  0.1  0  1;
%   4  2220  400  60  6  0.15  0.003  1.81  0.3  0.23  8  0.03  1.76  0.65  0.25  1  0.07  7  0  0  0  1  1  0  0.05  0.1  0  1;
%   7  2220  400  60  6  0.15  0.003  1.81  0.3  0.23  8  0.03  1.76  0.65  0.25  1  0.07  7  0  0  0  1  1  0  0.05  0.1  0  1;
%  ];
% 
% Exc.con = [ ... 
%   2  3  7  -6.4  200  1  1  1  0  0.0001  0.015  0.0006  0.9;
%   3  3  7  -6.4  200  1  1  1  0  0.0001  0.015  0.0006  0.9;
%  ];
% 
% Pss.con = [ ... 
%   2  2  1  0.2  -0.2  9.5  1.41  0.154  0.033  1  1  25  0.5  20  5  0.045  0.045  0.045  -0.045  1  0.95  0  1;
%  ]; 


% Exc.con = [ ... 
% %   1  2  7.32  0  200  0.02  0.002  1  1  0.2  0.001  0.0006  0.9  1;  
% %   2  2  4.38  0  20  0.02  0.001  1  1  1.98  0.001  0.0006  0.9  1;
% %   3  2  4.38  0  20  0.02  0.001  1  1  1.98  0.001  0.0006  0.9  1;
% %   4  2  6.81  1.395  20  0.02  0.001  1  1  0.7  0.001  0.0006  0.9  1;
% %   5  2  6.81  1.395  20  0.02  0.001  1  1  0.7  0.001  0.0006  0.9  1;
% 1  3  5  -5  200  1  1  1  1  0.001  0.01  0.0006  0.9  1; 
% 2  3  5  -5  200  1  1  1  1  0.001  0.01  0.0006  0.9  1; 
% 3  3  5  -5  200  1  1  1  1  0.001  0.01  0.0006  0.9  1; 
% 4  3  5  -5  200  1  1  1  1  0.001  0.01  0.0006  0.9  1; 
% 5  3  5  -5  200  1  1  1  1  0.001  0.01  0.0006  0.9  1; 
% 6  3  5  -5  200  1  1  1  1  0.001  0.01  0.0006  0.9  1; 
% 7  3  5  -5  200  1  1  1  1  0.001  0.01  0.0006  0.9  1; 
% 8  3  5  -5  200  1  1  1  1  0.001  0.01  0.0006  0.9  1; 
% 9  3  5  -5  200  1  1  1  1  0.001  0.01  0.0006  0.9  1; 
% 10  3  5  -5  200  1  1  1  1  0.001  0.01  0.0006  0.9  1; 
%  ];
% % 
% con = [];
% for i = 1 : length(Exc.con(:,1))
% %     cfg = [1200    100      60       4      0.0       0  0.282  0.282       0.282     10     0.1  0.282  0.282    0.282   9999       0.2    7.49      0       0       0       1       1   0.002];
%     cfg = [Exc.con(i,1) 3  7  -6.4  200  1  1  1  0  0.0001  0.0015  0.0006  0.9 1];
% %     cfg = [Exc.con(i,1) 3  7  -6.4   0      200    0.015        0        0        0        0        0        0];
%    
%     con = [con; cfg];
% end
% Exc.con = con;


% Pss.con = [ ...                                                  
%    1    2    1        5       -5        4        3      0.1     0.01      0.1     0.01 ... 
%         0        0        0        0        0        0        0        0        0        0    0;
%    2    2    1        5       -5        4        3      0.1     0.01      0.1     0.01 ... 
%         0        0        0        0        0        0        0        0        0        0    0;
%    3    2    1        5       -5        4        3      0.1     0.01      0.1     0.01 ... 
%         0        0        0        0        0        0        0        0        0        0    0;
%    4    2    1        5       -5    3.333        3      0.1     0.01      0.1     0.01 ... 
%         0        0        0        0        0        0        0        0        0        0    0;
%    5    2    1        5       -5        4        3      0.1     0.01      0.1     0.01 ... 
%         0        0        0        0        0        0        0        0        0        0    0;
%    6    2    1        5       -5        4        3      0.1     0.01      0.1     0.01 ... 
%         0        0        0        0        0        0        0        0        0        0    0;
%    7    2    1        5       -5    3.677        3      0.1     0.01      0.1     0.01 ... 
%         0        0        0        0        0        0        0        0        0        0    0;
%    8    2    1        5       -5     3.17        3      0.1     0.01      0.1     0.01 ... 
%         0        0        0        0        0        0        0        0        0        0    0;
%    9    2    1        5       -5        4        3      0.1     0.01      0.1     0.01 ... 
%         0        0        0        0        0        0        0        0        0        0    0];

% Breaker.con = [ ... 
% % %   3  2  100  100  60  1  1  200  1  1;
%   6  18  100  100  60  1  5.0  200.0  1  1;
%   25  18  100  100  60  1  5.0  200.0  1  1;
%  ];

% Fault.con = [ ... 
% 12      100      100       60        1    0.2        0    0.000001 ];